Cases/test/data/branch_specific/scenario_results_case9.csv
line_id,y_cos_f_w1_vm_from,y_cos_f_w2_vm_to,y_cos_f_w3_theta_i,y_cos_f_w4_theta_j,y_cos_f_bias,y_sin_f_w1_vm_from,y_sin_f_w2_vm_to,y_sin_f_w3_theta_i,y_sin_f_w4_theta_j,y_sin_f_bias
1_4,-1.0033973270355758,0.031537992862264774,-1.811584748125924e-31,0.13784351041991316,2.384260118092274,0.06555905431360176,-0.21632395761279027,1.2444445058283491e-30,-1.1579025254178803,0.18135638126695489
3_6,-0.40157576825063324,0.5885709248932415,-0.2289360087977722,-0.3406687113743741,0.9733734103563674,0.09958815517074271,0.05979729922095186,-0.1818614605228815,-0.2872867272175896,-0.12043503889861801
4_5,-3.3370800628815327,-1.7063565642888299,31.871822284939352,-19.87942904831555,7.177781498414813,-0.10787782813264812,-0.06401203147168974,0.505841635373382,-0.7255565738838565,0.20677991900605885
5_6,-0.00295579565989541,-0.9999874611603775,-0.005961977249961633,-0.0005439405841356102,2.4012612695488675,-0.01755090058234443,-0.0013810295896271678,-0.191225193040787,-0.294744556509311,-0.08456510374318643
6_7,0.05288282668680272,0.052461222619691245,0.10767005246860979,0.19713949688388094,1.0743962246626155,-0.0821776302672575,-0.11296079868589831,-0.1995495316049534,-0.36515090959873175,0.2661050662894375
7_8,0.503020201333967,0.4943824424017038,0.012049677322653607,0.007416171499936425,0.002486628128165247,0.09922493820230965,-0.06933412080518056,0.3158617308984128,0.18718710476783684,-0.07439684733165389
8_2,0.0006886935805286987,0.17189766756576122,-0.19759172242660308,-0.09593327368317016,1.0081673025317506,0.06129393939767658,-0.28302096660035936,0.32536252177492636,0.15793516140818095,0.16308151720413785
8_9,-0.00017252797362249384,0.018946024165299655,0.06853534628471379,0.053385169101357405,1.1534676481652384,0.06211036269882084,0.04489951071290192,0.16233348011900856,0.1264709661542956,-0.0031035111391996134
9_4,0.08014321236385907,0.021315547346561013,0.22822171263140095,-0.021519657261057784,1.0702197957099946,0.33334818223303614,0.09145069462440636,0.9661547982872407,-1.0307647750995472,-0.5019767247956375
